/*--------------------------------*- C++ -*----------------------------------*\
| =========                 |                                                 |
| \\      /  F ield         | OpenFOAM: The Open Source CFD Toolbox           |
|  \\    /   O peration     | Version:  v2012                                 |
|   \\  /    A nd           | Website:  www.openfoam.com                      |
|    \\/     M anipulation  |                                                 |
\*---------------------------------------------------------------------------*/
FoamFile
{
    version     2.0;
    format      ascii;
    class       dictionary;
    object      controlDict;
}
// * * * * * * * * * * * * * * * * * * * * * * * * * * * * * * * * * * * * * //

application     simpleFoam;

startFrom       latestTime;

startTime       0;

stopAt          endTime;

endTime         75;

deltaT          0.00375;

writeControl    runTime;

writeInterval   0.46875; //3.0625;

purgeWrite      16;

writeFormat     ascii;

writePrecision  6;

writeCompression off;

timeFormat      general;

timePrecision   6;

runTimeModifiable true;

functions
{
    forces
    {
        type          forces;
        libs          (forces);
        writeControl  timeStep;
        timeInterval  1;
        patches       (disc);
        rho           rhoInf;     // Indicates incompressible
        rhoInf        1;          // Redundant for incompressible
        CofR          (0 0 0);    // Rotation around centre line of propeller
        pitchAxis     (0 1 0);
    }
}

// ************************************************************************* //
